Version 4
SHEET 1 880 680
WIRE -720 -176 -928 -176
WIRE -720 -160 -720 -176
WIRE -848 -80 -848 -128
WIRE -1248 -64 -1248 -112
WIRE -720 -64 -720 -80
WIRE -720 -64 -816 -64
WIRE -544 -64 -720 -64
WIRE -432 -64 -544 -64
WIRE -320 -64 -432 -64
WIRE -208 -64 -320 -64
WIRE -1120 -48 -1136 -48
WIRE -928 -48 -928 -176
WIRE -928 -48 -1040 -48
WIRE -880 -48 -928 -48
WIRE -752 -32 -816 -32
WIRE -576 -32 -752 -32
WIRE -464 -32 -576 -32
WIRE -352 -32 -464 -32
WIRE -240 -32 -352 -32
WIRE -752 -16 -752 -32
WIRE -848 16 -848 -16
WIRE -640 16 -720 16
WIRE -1248 32 -1248 16
WIRE -1248 32 -1312 32
WIRE -640 32 -640 16
WIRE -576 32 -576 -32
WIRE -560 32 -576 32
WIRE -544 32 -544 -64
WIRE -464 32 -464 -32
WIRE -432 32 -432 -64
WIRE -432 32 -448 32
WIRE -352 32 -352 -32
WIRE -320 32 -320 -64
WIRE -320 32 -336 32
WIRE -240 32 -240 -32
WIRE -224 32 -240 32
WIRE -208 32 -208 -64
WIRE -1248 48 -1248 32
WIRE -1312 64 -1312 32
WIRE -720 64 -720 16
WIRE -1248 176 -1248 128
WIRE -640 176 -640 112
WIRE -560 176 -560 112
WIRE -560 176 -640 176
WIRE -544 176 -560 176
WIRE -448 176 -448 112
WIRE -448 176 -464 176
WIRE -432 176 -448 176
WIRE -336 176 -336 112
WIRE -336 176 -352 176
WIRE -320 176 -336 176
WIRE -224 176 -224 112
WIRE -224 176 -240 176
WIRE -1040 256 -1040 224
WIRE -1248 272 -1280 272
WIRE -1136 272 -1136 -48
WIRE -1136 272 -1168 272
WIRE -1072 272 -1136 272
WIRE -224 288 -224 176
WIRE -224 288 -1008 288
WIRE -1280 304 -1280 272
WIRE -1072 304 -1136 304
WIRE -1040 352 -1040 320
WIRE -1280 432 -1280 384
WIRE -1200 432 -1280 432
WIRE -1136 432 -1136 304
WIRE -1136 432 -1200 432
WIRE -1200 448 -1200 432
FLAG -752 -16 0
FLAG -1312 64 0
FLAG -1200 448 0
FLAG -848 16 1
FLAG -1248 176 1
FLAG -1040 224 1
FLAG -848 -128 2
FLAG -1248 -112 2
FLAG -1040 352 2
FLAG -720 64 0
SYMBOL res -336 160 R90
WINDOW 0 0 56 VBottom 2
WINDOW 3 32 56 VTop 2
SYMATTR InstName R2
SYMATTR Value 10k
SYMBOL res -448 160 R90
WINDOW 0 0 56 VBottom 2
WINDOW 3 32 56 VTop 2
SYMATTR InstName R3
SYMATTR Value 10k
SYMBOL res -224 160 R90
WINDOW 0 0 56 VBottom 2
WINDOW 3 32 56 VTop 2
SYMATTR InstName R1
SYMATTR Value 10k
SYMBOL res -656 16 R0
SYMATTR InstName R24
SYMATTR Value 20k
SYMBOL res -736 -176 R0
SYMATTR InstName R25
SYMATTR Value 10k
SYMBOL res -1024 -64 R90
WINDOW 0 0 56 VBottom 2
WINDOW 3 32 56 VTop 2
SYMATTR InstName R26
SYMATTR Value 1k
SYMBOL res -1152 256 R90
WINDOW 0 0 56 VBottom 2
WINDOW 3 32 56 VTop 2
SYMATTR InstName R27
SYMATTR Value 1k
SYMBOL res -576 16 R0
SYMATTR InstName R15
SYMATTR Value 20k
SYMBOL res -464 16 R0
SYMATTR InstName R14
SYMATTR Value 20k
SYMBOL res -352 16 R0
SYMATTR InstName R13
SYMATTR Value 20k
SYMBOL res -240 16 R0
SYMATTR InstName R12
SYMATTR Value 20k
SYMBOL voltage -1280 288 R0
WINDOW 123 0 0 Left 2
WINDOW 39 0 0 Left 2
SYMATTR InstName V1
SYMATTR Value SINE(0 100mv 100)
SYMBOL TL082 -848 -112 M0
SYMATTR InstName U1
SYMBOL TL082 -1040 352 M180
SYMATTR InstName U2
SYMBOL voltage -1248 -80 R0
SYMATTR InstName V4
SYMATTR Value 9V
SYMBOL voltage -1248 32 R0
SYMATTR InstName V5
SYMATTR Value 9V
TEXT -1256 344 Left 2 !.tran 100m
