Version 4
SHEET 1 880 680
WIRE -800 -208 -928 -208
WIRE -720 -208 -800 -208
WIRE -1008 -176 -1376 -176
WIRE -848 -176 -1008 -176
WIRE -800 -176 -800 -208
WIRE -720 -176 -720 -208
WIRE -1376 -80 -1376 -96
WIRE -1376 -80 -1440 -80
WIRE -848 -80 -848 -176
WIRE -1376 -64 -1376 -80
WIRE -800 -64 -800 -112
WIRE -800 -64 -816 -64
WIRE -720 -64 -720 -96
WIRE -720 -64 -800 -64
WIRE 368 -64 -720 -64
WIRE -1440 -48 -1440 -80
WIRE -1120 -48 -1136 -48
WIRE -928 -48 -928 -208
WIRE -928 -48 -1040 -48
WIRE -880 -48 -928 -48
WIRE -800 -32 -816 -32
WIRE -768 -32 -800 -32
WIRE -640 -32 -768 -32
WIRE -528 -32 -640 -32
WIRE -416 -32 -528 -32
WIRE -304 -32 -416 -32
WIRE -192 -32 -304 -32
WIRE -80 -32 -192 -32
WIRE 32 -32 -80 -32
WIRE 144 -32 32 -32
WIRE 256 -32 144 -32
WIRE 480 -32 256 -32
WIRE -800 -16 -800 -32
WIRE -896 0 -992 0
WIRE -848 16 -848 -16
WIRE -848 16 -1376 16
WIRE -992 32 -992 0
WIRE -896 32 -896 0
WIRE -768 32 -768 -32
WIRE -640 32 -640 -32
WIRE -528 32 -528 -32
WIRE -416 32 -416 -32
WIRE -304 32 -304 -32
WIRE -192 32 -192 -32
WIRE -80 32 -80 -32
WIRE 32 32 32 -32
WIRE 144 32 144 -32
WIRE 256 32 256 -32
WIRE 368 32 368 -64
WIRE 480 32 480 -32
WIRE -896 176 -896 112
WIRE -768 176 -768 112
WIRE -768 176 -896 176
WIRE -736 176 -768 176
WIRE -640 176 -640 112
WIRE -640 176 -656 176
WIRE -624 176 -640 176
WIRE -528 176 -528 112
WIRE -528 176 -544 176
WIRE -512 176 -528 176
WIRE -416 176 -416 112
WIRE -416 176 -432 176
WIRE -400 176 -416 176
WIRE -304 176 -304 112
WIRE -304 176 -320 176
WIRE -288 176 -304 176
WIRE -192 176 -192 112
WIRE -192 176 -208 176
WIRE -176 176 -192 176
WIRE -80 176 -80 112
WIRE -80 176 -96 176
WIRE -64 176 -80 176
WIRE 32 176 32 112
WIRE 32 176 16 176
WIRE 48 176 32 176
WIRE 144 176 144 112
WIRE 144 176 128 176
WIRE 160 176 144 176
WIRE 256 176 256 112
WIRE 256 176 240 176
WIRE 272 176 256 176
WIRE 368 176 368 112
WIRE 368 176 352 176
WIRE 384 176 368 176
WIRE 480 176 480 112
WIRE 480 176 464 176
WIRE 544 176 480 176
WIRE -1376 208 -1376 16
WIRE -1040 208 -1376 208
WIRE -1008 224 -1008 -176
WIRE -912 224 -1008 224
WIRE -1040 256 -1040 208
WIRE -1248 272 -1280 272
WIRE -1136 272 -1136 -48
WIRE -1136 272 -1168 272
WIRE -1072 272 -1136 272
WIRE 544 288 544 176
WIRE 544 288 -1008 288
WIRE -1280 304 -1280 272
WIRE -1072 304 -1136 304
WIRE -1040 352 -1040 320
WIRE -912 352 -912 224
WIRE -912 352 -1040 352
WIRE -1280 432 -1280 384
WIRE -1200 432 -1280 432
WIRE -1136 432 -1136 304
WIRE -1136 432 -1200 432
WIRE -1200 480 -1200 432
FLAG -992 32 0
FLAG -800 -16 0
FLAG -1440 -48 0
FLAG -1200 480 0
SYMBOL res 368 160 R90
WINDOW 0 0 56 VBottom 2
WINDOW 3 32 56 VTop 2
SYMATTR InstName R2
SYMATTR Value 10k
SYMBOL res 256 160 R90
WINDOW 0 0 56 VBottom 2
WINDOW 3 32 56 VTop 2
SYMATTR InstName R3
SYMATTR Value 10k
SYMBOL res 144 160 R90
WINDOW 0 0 56 VBottom 2
WINDOW 3 32 56 VTop 2
SYMATTR InstName R4
SYMATTR Value 10k
SYMBOL res 32 160 R90
WINDOW 0 0 56 VBottom 2
WINDOW 3 32 56 VTop 2
SYMATTR InstName R5
SYMATTR Value 10k
SYMBOL res 480 160 R90
WINDOW 0 0 56 VBottom 2
WINDOW 3 32 56 VTop 2
SYMATTR InstName R1
SYMATTR Value 10k
SYMBOL res -80 160 R90
WINDOW 0 0 56 VBottom 2
WINDOW 3 32 56 VTop 2
SYMATTR InstName R6
SYMATTR Value 10k
SYMBOL res -192 160 R90
WINDOW 0 0 56 VBottom 2
WINDOW 3 32 56 VTop 2
SYMATTR InstName R7
SYMATTR Value 10k
SYMBOL res -304 160 R90
WINDOW 0 0 56 VBottom 2
WINDOW 3 32 56 VTop 2
SYMATTR InstName R8
SYMATTR Value 10k
SYMBOL res -416 160 R90
WINDOW 0 0 56 VBottom 2
WINDOW 3 32 56 VTop 2
SYMATTR InstName R9
SYMATTR Value 10k
SYMBOL res -528 160 R90
WINDOW 0 0 56 VBottom 2
WINDOW 3 32 56 VTop 2
SYMATTR InstName R10
SYMATTR Value 10k
SYMBOL res -640 160 R90
WINDOW 0 0 56 VBottom 2
WINDOW 3 32 56 VTop 2
SYMATTR InstName R11
SYMATTR Value 10k
SYMBOL res -208 16 R0
SYMATTR InstName R18
SYMATTR Value 20k
SYMBOL res -320 16 R0
SYMATTR InstName R19
SYMATTR Value 20k
SYMBOL res -432 16 R0
SYMATTR InstName R20
SYMATTR Value 20k
SYMBOL res -544 16 R0
SYMATTR InstName R21
SYMATTR Value 20k
SYMBOL res -656 16 R0
SYMATTR InstName R22
SYMATTR Value 20k
SYMBOL res -784 16 R0
SYMATTR InstName R23
SYMATTR Value 20k
SYMBOL res -912 16 R0
SYMATTR InstName R24
SYMATTR Value 20k
SYMBOL res -736 -192 R0
SYMATTR InstName R25
SYMATTR Value 10k
SYMBOL cap -816 -176 R0
SYMATTR InstName C1
SYMATTR Value 0.1µ
SYMBOL res -1024 -64 R90
WINDOW 0 0 56 VBottom 2
WINDOW 3 32 56 VTop 2
SYMATTR InstName R26
SYMATTR Value 1k
SYMBOL res -1152 256 R90
WINDOW 0 0 56 VBottom 2
WINDOW 3 32 56 VTop 2
SYMATTR InstName R27
SYMATTR Value 1k
SYMBOL res -96 16 R0
SYMATTR InstName R17
SYMATTR Value 20k
SYMBOL res 16 16 R0
SYMATTR InstName R16
SYMATTR Value 20k
SYMBOL res 128 16 R0
SYMATTR InstName R15
SYMATTR Value 20k
SYMBOL res 240 16 R0
SYMATTR InstName R14
SYMATTR Value 20k
SYMBOL res 352 16 R0
SYMATTR InstName R13
SYMATTR Value 20k
SYMBOL res 464 16 R0
SYMATTR InstName R12
SYMATTR Value 20k
SYMBOL voltage -1280 288 R0
WINDOW 123 0 0 Left 2
WINDOW 39 0 0 Left 2
SYMATTR InstName V1
SYMATTR Value SINE(0 100mv 100)
SYMBOL voltage -1376 -192 R0
WINDOW 123 0 0 Left 2
WINDOW 39 0 0 Left 2
SYMATTR InstName V4
SYMATTR Value 10
SYMBOL voltage -1376 -80 R0
SYMATTR InstName V5
SYMATTR Value 10
SYMBOL TL082 -848 -112 M0
SYMATTR InstName U1
SYMBOL TL082 -1040 352 M180
SYMATTR InstName U2
TEXT -1256 344 Left 2 !.tran 100m
